Circuit: * C:\Users\varsh\OneDrive\Desktop\es17btech11009\spice\es17btech11009.asc

Direct Newton iteration for .op point succeeded.

Date: Tue May 19 00:22:15 2020
Total elapsed time: 0.370 seconds.

tnom = 27
temp = 27
method = modified trap
totiter = 20948
traniter = 20937
tranpoints = 8300
accept = 7286
rejected = 1014
matrix size = 69
fillins = 90
solver = Normal
Matrix Compiler1: 7.88 KB object code size  3.3/1.7/[1.2]
Matrix Compiler2: 7.37 KB object code size  1.2/1.8/[0.8]

