Circuit: * C:\Users\varsh\OneDrive\Desktop\es17btech11009\spice\es17btech11009.asc

Direct Newton iteration for .op point succeeded.

Date: Fri May 15 18:58:53 2020
Total elapsed time: 0.631 seconds.

tnom = 27
temp = 27
method = modified trap
totiter = 42046
traniter = 42035
tranpoints = 18229
accept = 17258
rejected = 971
matrix size = 39
fillins = 45
solver = Normal
Matrix Compiler1: 4.08 KB object code size  1.6/1.0/[0.5]
Matrix Compiler2: 3.94 KB object code size  0.7/1.1/[0.6]

